$$------------------------------------------------------------------------------$
$$                                                                              $
$$ NASTRAN Input Deck Generated by HyperMesh Version  :2020.0.0.71
$$ Generated using HyperMesh-Nastran Template Version : 2020.0.0.71
$$                                                                              $
$$   Template:  NastranMSC general                                              $
$$                                                                              $
$$------------------------------------------------------------------------------$
$$------------------------------------------------------------------------------$
$$                      Executive Control Cards                                 $
$$------------------------------------------------------------------------------$
$$CEND
$$------------------------------------------------------------------------------$
$$                      Case Control Cards                                      $
$$------------------------------------------------------------------------------$
$$------------------------------------------------------------------------------$
$$                      Bulk Data Cards                                         $
$$------------------------------------------------------------------------------$
$$BEGIN BULK
$$
$$  GRID Data
$$
GRID           1          2.7185-6.66-16   2.759
GRID           2        2.7118780.189633   2.759
GRID           3        2.692044.3783421   2.759
GRID           4        2.659094.5652079   2.759
GRID           5         2.61319.7493202   2.759
GRID           6        2.554554.9297818   2.759
GRID           7        2.4834731.105714   2.759
GRID           8        2.4002931.276258   2.759
GRID           9        2.3054191.440586   2.759
GRID          10        2.1993131.597894   2.759
GRID          11        2.0824921.747418   2.759
GRID          12        1.9555251.888429   2.759
GRID          13        1.8190322.020239   2.759
GRID          14        1.6736762.142207   2.759
GRID          15        1.5201662.253739   2.759
GRID          16         1.35925 2.35429   2.759
GRID          17        1.1917122.443372   2.759
GRID          18        1.0183682.520549   2.759
GRID          19        .84006272.585447   2.759
GRID          20        .65766472.637749   2.759
$ ... 1421 like lines cut
$$
$$------------------------------------------------------------------------------$
$$             Group Definitions                                                $
$$------------------------------------------------------------------------------$
$$
$$ RBE2 Elements - Multiple dependent nodes
$$
RBE2        1351    1441  123456       1       2       3       4       5+       
+              6       7       8       9      10      11      12      13+       
+             14      15      16      17      18      19      20      21+       
+             22      23      24      25      26      27      28      29+       
+             30      31      32      33      34      35      36      37+       
+             38      39      40      41      42      43      44      45+       
+             46     737     738     739     740     741     742     743+       
+            744     745     746     747     748     749     750     751+       
+            752     753     754     755     756     757     758     759+       
+            760     761     762     763     764     765     766     767+       
+            768     769     770     771     772     773     774     775+       
+            776     777     778     779     780        
$
$HMMOVE        2
$           1351
$$
$$  CQUAD4 Elements
$$
CQUAD4         1       1     169     171     165     166
CQUAD4         2       1     171     160     161     165
CQUAD4         3       1     151     152     172     170
CQUAD4         4       1     170     172     171     169
CQUAD4         5       1     152     153     159     172
CQUAD4         6       1     172     159     160     171
CQUAD4         7       1     166     167     173     169
CQUAD4         8       1     169     173     174     170
CQUAD4         9       1     170     174     150     151
CQUAD4        10       1     139     175     168     138
CQUAD4        11       1     175     173     167     168
CQUAD4        12       1     141     149     176     140
CQUAD4        13       1     140     176     175     139
CQUAD4        14       1     149     150     174     176
CQUAD4        15       1     176     174     173     175
CQUAD4        16       1     178     180     181     177
CQUAD4        17       1     177     181      68      69
CQUAD4        18       1     180     163     164     181
CQUAD4        19       1     181     164      67      68
CQUAD4        20       1     166     165     182     179
$ ... 1330 like lines cut
$
$HMMOVE        1
$              1THRU        1350
$$
$$------------------------------------------------------------------------------$
$$    HyperMesh name information for generic property collectors                $
$$------------------------------------------------------------------------------$
$$
$$------------------------------------------------------------------------------$
$$    Property Definition for 1-D Elements                                      $
$$------------------------------------------------------------------------------$
$$
$$------------------------------------------------------------------------------$
$$    HyperMesh name and color information for generic components               $
$$------------------------------------------------------------------------------$
$HMNAME COMP                   1"Interstage_Cylinder"        1 "cylinder" 4 
$HWCOLOR COMP                  1      57
$
$HMNAME COMP                   2"RBE2" 
$HWCOLOR COMP                  2       8
$

$

$
$$
$$------------------------------------------------------------------------------$
$$    Property Definition for Surface and Volume Elements                       $
$$------------------------------------------------------------------------------$
$$
$$  PSHELL Data
$
$HMNAME PROP                   1"cylinder" 4
$HWCOLOR PROP                  1       6
$--01--><--02--><--03--><--04--><--05--><--06--><--07--><--08--><--09-->
$PSHELL         1       1  11.1-3       1               1   

$--01--><--02--><--03--><--04--><--05--><--06--><--07--><--08--><--09-->                                                                                                                                                                                       
$HMNAME PROP                   2"Honeycomb" 4
$HWCOLOR PROP                  2      55
PCOMP          1   0.0             65.+6    TSAI     20.                              
               1   0.1-3     0.0     YES       1   0.1-3    45.0     YES
               1   0.1-3   -45.0     YES       1   0.1-3    90.0     YES
               1   0.1-3     0.0     YES       1   0.1-3    45.0     YES
               1   0.1-3   -45.0     YES       1   0.1-3    90.0     YES
               1   0.1-3     0.0     YES       1   0.1-3    45.0     YES
               1   0.1-3   -45.0     YES       1   0.1-3    90.0     YES
               1   0.1-3     0.0     YES       1   0.1-3    45.0     YES
               1   0.1-3   -45.0     YES       1   0.1-3    90.0     YES
               1   0.1-3     0.0     YES       1   0.1-3    45.0     YES
               1   0.1-3   -45.0     YES       1   0.1-3    90.0     YES
               3  21.0-3     0.0     YES       1   0.1-3    90.0     YES
               1   0.1-3   -45.0     YES       1   0.1-3    45.0     YES       
               1   0.1-3     0.0     YES       1   0.1-3    90.0     YES
               1   0.1-3   -45.0     YES       1   0.1-3    45.0     YES       
               1   0.1-3     0.0     YES       1   0.1-3    90.0     YES
               1   0.1-3   -45.0     YES       1   0.1-3    45.0     YES
               1   0.1-3     0.0     YES       1   0.1-3    90.0     YES
               1   0.1-3   -45.0     YES       1   0.1-3    45.0     YES       
               1   0.1-3     0.0     YES       1   0.1-3    90.0     YES
               1   0.1-3   -45.0     YES       1   0.1-3    45.0     YES
               1   0.1-3     0.0     YES

             
$$--------------------------------------------------------------
$$ HYPERMESH TAGS 
$$--------------------------------------------------------------
$$BEGIN TAGS
$$END TAGS
$$
$$------------------------------------------------------------------------------$
$$     HyperMesh name information for generic materials                         $
$$------------------------------------------------------------------------------$
$$
$$------------------------------------------------------------------------------$
$$                      Material Definition Cards                               $
$$------------------------------------------------------------------------------$
$$
$$  MAT1 Data
$
$HMNAME MAT                    1"Al" "MAT1"
$HWCOLOR MAT                   1       5
$--01--><--02--><--03--><--04--><--05--><--06--><--07--><--08--><--09--> SO
$MAT1          1 72+9            0.3     2810.0  

$$
$$  MAT8 Data
$$

$ ALUM. CORE 3/16 - 5056 - 0.001 (50kg/m3)
$--01--><--02--><--03--><--04--><--05--><--06--><--07--><--08--><--09-->
MAT8       3    310.+6  138.+6  0.29    1.152+8 3.103+8 1.379+8 50.     +
+       2.4-5   2.4-5   20.     1724+3  1793+3  1379+3  758+3   1.+9 


$ SKIN CFRP (M55J/M18)
$--01--><--02--><--03--><--04--><--05--><--06--><--07--><--08--><--09-->
MAT8     1      2.+11   7.3+9   0.3     3.5+9   3.5+9   3.5+9   1600.   +       
+        -8.4-7 2.9-5   20.     1.4+9   7.4+8   3.4+7   1.8+8   6.3+7     

                        
$$
$$------------------------------------------------------------------------------$
$$        Loads and Boundary Conditions                                         $
$$------------------------------------------------------------------------------$
$$
$$HyperMesh name and color information for generic loadcollectors
$$
$HMNAME LOADCOL                1"SPCs"
$HWCOLOR LOADCOL               1       7
$
$HMNAME LOADCOL                2"Force"
$HWCOLOR LOADCOL               2      17
$
$$
$$  SPC Data
$$
SPC            1      61  123456     0.0
SPC            1      62  123456     0.0
SPC            1      63  123456     0.0
SPC            1      64  123456     0.0
SPC            1      65  123456     0.0
SPC            1      66  123456     0.0
SPC            1      67  123456     0.0
SPC            1      68  123456     0.0
SPC            1      69  123456     0.0
SPC            1      70  123456     0.0
SPC            1      71  123456     0.0
SPC            1      72  123456     0.0
SPC            1      73  123456     0.0
SPC            1      74  123456     0.0
SPC            1      75  123456     0.0
SPC            1      76  123456     0.0
SPC            1      77  123456     0.0
SPC            1      78  123456     0.0
SPC            1      79  123456     0.0
SPC            1      80  123456     0.0
$ ... 70 like lines cut

$$
$$  FORCE Data
$$

$$ CFE = CRITICAL FLIGHT EVENT
$$ CFE_1 - LIFT-OFF; ESC-A_weight*SF * (axial/lateral accelerations)*SF = 42850kg*1.25 * 4.125/2.5g
$--01--><--02--><--03--><--04--><--05--><--06--><--07--><--08--><--09--> N
FORCE      11101    1441       0    1.0 -1.314+6    0.0 -2.167+6
FORCE      11102    1441       0    1.0 -1.138+6-6.568+5-2.167+6
FORCE      11103    1441       0    1.0 -6.568+5-1.138+6-2.167+6
FORCE      11104    1441       0    1.0     0.0 -1.314+6-2.167+6
FORCE      11105    1441       0    1.0 6.5681+5-1.138+6-2.167+6
FORCE      11106    1441       0    1.0 1.1376+6-6.568+5-2.167+6
FORCE      11107    1441       0    1.0 1.3136+6    0.0 -2.167+6
FORCE      11108    1441       0    1.0 1.1376+66.5681+5-2.167+6
FORCE      11109    1441       0    1.0 6.5681+51.1376+6-2.167+6
FORCE      11110    1441       0    1.0     0.0 1.3136+6-2.167+6
FORCE      11111    1441       0    1.0 -6.568+51.1376+6-2.167+6
FORCE      11112    1441       0    1.0 -1.138+66.5681+5-2.167+6

$$ CFE_2 - PRESSURE OSCILLATIONS/SRB END OF FLIGHT; ESC-A_weight*SF * (axial/lateral accelerations)*SF = 42850kg*1.25 * 7.5/1.25g
$--01--><--02--><--03--><--04--><--05--><--06--><--07--><--08--><--09--> N
FORCE      11201    1441       0    1.0 -6.568+5    0.0 -3.941+6
FORCE      11202    1441       0    1.0 -5.688+5-3.284+5-3.941+6
FORCE      11203    1441       0    1.0 -3.284+5-5.688+5-3.941+6
FORCE      11204    1441       0    1.0     0.0 -6.568+5-3.941+6
FORCE      11205    1441       0    1.0 3.2841+5-5.688+5-3.941+6
FORCE      11206    1441       0    1.0 5.6881+5-3.284+5-3.941+6
FORCE      11207    1441       0    1.0 6.5681+5    0.0 -3.941+6
FORCE      11208    1441       0    1.0 5.6881+53.2841+5-3.941+6
FORCE      11209    1441       0    1.0 3.2841+55.6881+5-3.941+6
FORCE      11210    1441       0    1.0     0.0 6.5681+5-3.941+6
FORCE      11211    1441       0    1.0 -3.284+55.6881+5-3.941+6
FORCE      11212    1441       0    1.0 -5.688+53.2841+5-3.941+6

$$ CFE_3 - SRB JETTISONING; ESC-A_weight*SF * (axial/lateral accelerations)*SF = 42850kg*1.25 * -3.125/1.125g
$--01--><--02--><--03--><--04--><--05--><--06--><--07--><--08--><--09--> N
FORCE      11301    1441       0    1.0 -5.911+5    0.0  1.642+6
FORCE      11302    1441       0    1.0 -5.119+5-2.956+5 1.642+6
FORCE      11303    1441       0    1.0 -2.956+5-5.119+5 1.642+6
FORCE      11304    1441       0    1.0     0.0 -5.911+5 1.642+6
FORCE      11305    1441       0    1.0 2.9556+5-5.119+5 1.642+6
FORCE      11306    1441       0    1.0 5.1193+5-2.956+5 1.642+6
FORCE      11307    1441       0    1.0 5.9113+5    0.0  1.642+6
FORCE      11308    1441       0    1.0 5.1193+52.9556+5 1.642+6
FORCE      11309    1441       0    1.0 2.9556+55.1193+5 1.642+6
FORCE      11310    1441       0    1.0     0.0 5.9113+5 1.642+6
FORCE      11311    1441       0    1.0 -2.956+55.1193+5 1.642+6
FORCE      11312    1441       0    1.0 -5.119+52.9556+5 1.642+6


$$
$$  MOMENT Data
$$

$$ CFE = CRITICAL FLIGHT EVENT
$$ CFE_1 - LIFT-OFF; T = (ESC-A_weight * axial_acc*SF)*distance*SF = (42850kg*1.25 * 2g*1.25)*9.237m*1.25
$--01--><--02--><--03--><--04--><--05--><--06--><--07--><--08--><--09--> Nm
MOMENT    111101    1441       0    1.0     0.0  -1.52+7     0.0
MOMENT    111102    1441       0    1.0 7.5839+6 -1.31+7     0.0
MOMENT    111103    1441       0    1.0 1.314+7 -7.584+6     0.0
MOMENT    111104    1441       0    1.0 1.517+7      0.0     0.0
MOMENT    111105    1441       0    1.0 1.314+7 7.5839+6     0.0
MOMENT    111106    1441       0    1.0 7.5839+6 1.314+7     0.0
MOMENT    111107    1441       0    1.0     0.0  1.517+7     0.0
MOMENT    111108    1441       0    1.0 -7.584+6 1.314+7     0.0
MOMENT    111109    1441       0    1.0 -1.31+7 7.5839+6     0.0
MOMENT    111110    1441       0    1.0 -1.52+7      0.0     0.0
MOMENT    111111    1441       0    1.0 -1.31+7 -7.584+6     0.0
MOMENT    111112    1441       0    1.0 -7.584+6 -1.31+7     0.0

$$ CFE_2 - PRESSURE OSCILLATIONS/SRB END OF FLIGHT; T = (weight * axial_acc*SF)*distance*SF = (42850kg*1.25 * 1g*1.25)*9.237m*1.25
$--01--><--02--><--03--><--04--><--05--><--06--><--07--><--08--><--09--> Nm
MOMENT    111201    1441       0    1.0     0.0 -7.584+6     0.0
MOMENT    111202    1441       0    1.0 3.7920+6-6.568+6     0.0
MOMENT    111203    1441       0    1.0 6.5679+6-3.792+6     0.0
MOMENT    111204    1441       0    1.0 7.5839+6     0.0     0.0
MOMENT    111205    1441       0    1.0 6.5679+63.7920+6     0.0
MOMENT    111206    1441       0    1.0 3.7920+66.5679+6     0.0
MOMENT    111207    1441       0    1.0     0.0 7.5839+6     0.0
MOMENT    111208    1441       0    1.0 -3.792+66.5679+6     0.0
MOMENT    111209    1441       0    1.0 -6.568+63.7920+6     0.0
MOMENT    111210    1441       0    1.0 -7.584+6     0.0     0.0
MOMENT    111211    1441       0    1.0 -6.568+6-3.792+6     0.0
MOMENT    111212    1441       0    1.0 -3.792+6-6.568+6     0.0

$$ CFE_3 - SRB JETTISONING; T = (weight * axial_acc*SF)*distance*SF = (42850kg*1.25 * 0.9g*1.25)*9.237m*1.25
$--01--><--02--><--03--><--04--><--05--><--06--><--07--><--08--><--09--> Nm
MOMENT    111301    1441       0    1.0     0.0 -6.826+6     0.0
MOMENT    111302    1441       0    1.0 3.4128+6-5.911+6     0.0
MOMENT    111303    1441       0    1.0 5.9111+6-3.413+6     0.0
MOMENT    111304    1441       0    1.0 6.8255+6     0.0     0.0
MOMENT    111305    1441       0    1.0 5.9111+63.4128+6     0.0
MOMENT    111306    1441       0    1.0 3.4128+65.9111+6     0.0
MOMENT    111307    1441       0    1.0     0.0 6.8255+6     0.0
MOMENT    111308    1441       0    1.0 -3.413+65.9111+6     0.0
MOMENT    111309    1441       0    1.0 -5.911+63.4128+6     0.0
MOMENT    111310    1441       0    1.0 -6.826+6     0.0     0.0
MOMENT    111311    1441       0    1.0 -5.911+6-3.413+6     0.0
MOMENT    111312    1441       0    1.0 -3.413+6-5.911+6     0.0


